tests/data/power_flow/pv-node/pv-node-load-gen-const-i-y/input.json
{
    "version": "1.0",
    "type": "input",
    "is_batch": false,
    "attributes": {},
    "data": {
        "node": [
            {
                "id": 1,
                "u_rated": 220e3
            },
            {
                "id": 2,
                "u_rated": 220e3
            }
        ],
        "line": [
            {
                "id": 3,
                "from_node": 1,
                "to_node": 2,
                "from_status": 1,
                "to_status": 1,
                "r1": 0.1,
                "x1": 0.6,
                "c1": 0.0,
                "tan1": 0.0
            }
        ],
        "sym_gen": [
            {
                "id": 4,
                "node": 1,
                "status": 1,
                "type": 1,
                "p_specified": 10e6,
                "q_specified": 0e6
            },
            {
                "id": 5,
                "node": 1,
                "status": 1,
                "type": 2,
                "p_specified": 10e6,
                "q_specified": 0e6
            }

        ],
        "voltage_regulator": [
            {
                "id": 6,
                "regulated_object": 4,
                "status": 1,
                "u_ref": 1.05
            },
            {
                "id": 7,
                "regulated_object": 5,
                "status": 1,
                "u_ref": 1.05
            }
        ],
        "source": [
            {
                "id": 8,
                "node": 2,
                "status": 1,
                "u_ref": 1.05,
                "sk": 1e40,
                "rx_ratio": 0.1,
                "z01_ratio": 1.0
            }
        ]
    }
}